Version 4
SHEET 1 1028 688
WIRE -1152 -864 -1200 -864
WIRE -928 -864 -976 -864
WIRE -80 -864 -128 -864
WIRE -1200 -752 -1200 -864
WIRE -976 -752 -976 -864
WIRE -128 -752 -128 -864
WIRE -1200 -528 -1200 -672
WIRE -976 -528 -976 -672
WIRE -128 -528 -128 -672
FLAG -1152 -864 Vled
FLAG -1200 -528 0
FLAG -928 -864 Vshift
FLAG -976 -528 0
FLAG -80 -864 Idriver
FLAG -128 -528 0
SYMBOL voltage -1200 -768 R0
WINDOW 123 0 0 Left 0
WINDOW 39 0 0 Left 0
SYMATTR InstName Vled
SYMATTR Value {Vcc}
SYMBOL voltage -976 -768 R0
SYMATTR Value2 AC 1 0
SYMATTR SpiceLine Rser=35 Cpar=5p
SYMATTR InstName Vshift
SYMATTR Value PULSE({0.95*Vcc} {0.05*Vcc} 100u 10n 10n 794u 16.67m)
SYMBOL current -128 -752 R0
WINDOW 39 24 108 Left 2
SYMATTR InstName Idriver
SYMATTR Value PULSE(0 {pixels*15m} 200u 30n 30n 1.6u 3.1u)
SYMATTR Value2 AC 1 0
SYMATTR SpiceLine load
TEXT -1248 -1120 Left 2 !.tran 0 1m 0 4n
TEXT -1248 -1248 Left 5 ;algovision
TEXT -1248 -1184 Left 4 ;JamesNZL
TEXT -1248 -928 Left 3 ;Sources & Signals
TEXT -1248 -1088 Left 2 !.param Vcc = 5\n.param pixels = 1
TEXT -1248 -384 Left 3 ;Current Amplifiers/Buffers
