Version 4
SHEET 1 880 688
WIRE -1456 16 -1520 16
WIRE -1136 16 -1200 16
WIRE -624 16 -688 16
WIRE 192 16 128 16
WIRE 128 112 128 16
WIRE -1520 128 -1520 16
WIRE -1200 128 -1200 16
WIRE -688 128 -688 16
WIRE 208 160 192 160
WIRE 304 160 288 160
WIRE 128 272 128 208
WIRE -1520 368 -1520 208
WIRE -1200 368 -1200 208
WIRE -688 368 -688 208
WIRE 128 400 128 336
WIRE 128 560 128 480
FLAG 304 160 Vshift
FLAG -1136 16 Vshift
FLAG -1200 368 0
FLAG -624 16 Vdriver
FLAG -688 368 0
FLAG 128 560 Vdriver
FLAG -1456 16 5V
FLAG -1520 368 0
FLAG 192 16 5V
SYMBOL pnp 192 208 R180
SYMATTR InstName Q1
SYMBOL voltage -1200 112 R0
WINDOW 123 0 0 Left 0
WINDOW 39 0 0 Left 0
SYMATTR InstName V2
SYMATTR Value PULSE(0 5 52m 1n 1n 50m 200m)
SYMBOL res 304 144 R90
WINDOW 0 0 56 VBottom 2
WINDOW 3 32 56 VTop 2
SYMATTR InstName R2
SYMATTR Value 100
SYMBOL LED 112 272 R0
SYMATTR InstName D1
SYMBOL res 112 384 R0
SYMATTR InstName R1
SYMATTR Value 100
SYMBOL voltage -688 112 R0
WINDOW 123 0 0 Left 0
WINDOW 39 0 0 Left 0
SYMATTR InstName V3
SYMATTR Value PULSE(5 0 50m 1n 1n 10m 20m)
SYMBOL voltage -1520 112 R0
WINDOW 123 0 0 Left 0
WINDOW 39 0 0 Left 0
SYMATTR InstName V1
SYMATTR Value 5
TEXT -658 584 Left 2 !.tran 1s
